MODEL 1
REMARK VINA RESULT: -8.030525438      0.000      0.000
REMARK  10 active torsions:
REMARK  status: ('A' for Active; 'I' for Inactive)
REMARK    1  A    between atoms: C2_2  and  C3_3 
REMARK    2  A    between atoms: C3_3  and  C4_4 
REMARK    3  A    between atoms: C4_4  and  C5_5 
REMARK    4  A    between atoms: C5_5  and  N1_6 
REMARK    5  A    between atoms: C5_5  and  P1_15 
REMARK       I    between atoms: N1_6  and  C6_8 
REMARK    6  A    between atoms: C6_8  and  C7_10 
REMARK    7  A    between atoms: C7_10  and  C8_11 
REMARK    8  A    between atoms: C8_11  and  C9_12 
REMARK    9  A    between atoms: P1_15  and  O6_18 
REMARK   10  A    between atoms: O6_18  and  C10_19 
ROOT
HETATM    1  C5  UNL     1      13.366  19.704  59.062  1.00  0.00     0.205 C 
ENDROOT
BRANCH   1   2
HETATM    2  C4  UNL     1      12.541  18.893  58.066  1.00  0.00     0.038 C 
BRANCH   2   3
HETATM    3  C3  UNL     1      11.589  17.964  58.792  1.00  0.00     0.002 C 
BRANCH   3   4
HETATM    4  C2  UNL     1      11.075  16.980  57.738  1.00  0.00    -0.004 C 
HETATM    5  C1  UNL     1      12.109  16.777  56.656  1.00  0.00     0.005 C 
ENDBRANCH   3   4
ENDBRANCH   2   3
ENDBRANCH   1   2
BRANCH   1   6
HETATM    6  N1  UNL     1      12.415  20.235  60.044  1.00  0.00    -0.345 N 
HETATM    7  C6  UNL     1      12.677  20.171  61.439  1.00  0.00     0.218 C 
HETATM    8  O1  UNL     1      13.764  19.639  61.848  1.00  0.00    -0.274 OA
ATOM      9  H1  UNL     1      11.546  20.659  59.719  1.00  0.00     0.163 HD
BRANCH   7  10
HETATM   10  C7  UNL     1      11.682  20.724  62.392  1.00  0.00     0.113 C 
BRANCH  10  11
HETATM   11  C8  UNL     1      12.266  21.851  63.213  1.00  0.00     0.122 C 
BRANCH  11  12
HETATM   12  C9  UNL     1      12.807  22.922  62.339  1.00  0.00     0.172 C 
HETATM   13  O2  UNL     1      12.080  23.623  61.608  1.00  0.00    -0.648 OA
HETATM   14  O3  UNL     1      14.180  23.145  62.343  1.00  0.00    -0.648 OA
ENDBRANCH  11  12
ENDBRANCH  10  11
ENDBRANCH   7  10
ENDBRANCH   1   6
BRANCH   1  15
HETATM   15  P1  UNL     1      14.141  21.051  58.130  1.00  0.00     0.278 P 
HETATM   16  O4  UNL     1      13.165  21.666  57.131  1.00  0.00    -0.645 OA
HETATM   17  O5  UNL     1      14.665  22.296  59.139  1.00  0.00    -0.645 OA
BRANCH  15  18
HETATM   18  O6  UNL     1      15.442  20.411  57.212  1.00  0.00    -0.268 OA
BRANCH  18  19
HETATM   19  C10 UNL     1      15.736  20.973  55.971  1.00  0.00     0.079 A 
HETATM   20  C11 UNL     1      15.098  20.591  54.815  1.00  0.00     0.037 A 
HETATM   21  C12 UNL     1      15.432  21.180  53.631  1.00  0.00     0.003 A 
HETATM   22  C13 UNL     1      16.419  22.171  53.582  1.00  0.00     0.000 A 
HETATM   23  C14 UNL     1      17.040  22.534  54.747  1.00  0.00     0.003 A 
HETATM   24  C15 UNL     1      16.714  21.949  55.952  1.00  0.00     0.037 A 
ENDBRANCH  18  19
ENDBRANCH  15  18
ENDBRANCH   1  15
TORSDOF 10
ENDMDL
MODEL 2
REMARK VINA RESULT: -7.869040915      0.616      1.313
REMARK  10 active torsions:
REMARK  status: ('A' for Active; 'I' for Inactive)
REMARK    1  A    between atoms: C2_2  and  C3_3 
REMARK    2  A    between atoms: C3_3  and  C4_4 
REMARK    3  A    between atoms: C4_4  and  C5_5 
REMARK    4  A    between atoms: C5_5  and  N1_6 
REMARK    5  A    between atoms: C5_5  and  P1_15 
REMARK       I    between atoms: N1_6  and  C6_8 
REMARK    6  A    between atoms: C6_8  and  C7_10 
REMARK    7  A    between atoms: C7_10  and  C8_11 
REMARK    8  A    between atoms: C8_11  and  C9_12 
REMARK    9  A    between atoms: P1_15  and  O6_18 
REMARK   10  A    between atoms: O6_18  and  C10_19 
ROOT
HETATM    1  C5  UNL     1      13.158  19.844  58.789  1.00  0.00     0.205 C 
ENDROOT
BRANCH   1   2
HETATM    2  C4  UNL     1      12.291  18.975  57.881  1.00  0.00     0.038 C 
BRANCH   2   3
HETATM    3  C3  UNL     1      11.512  17.961  58.695  1.00  0.00     0.002 C 
BRANCH   3   4
HETATM    4  C2  UNL     1      11.101  16.859  57.715  1.00  0.00    -0.004 C 
HETATM    5  C1  UNL     1      12.124  16.725  56.612  1.00  0.00     0.005 C 
ENDBRANCH   3   4
ENDBRANCH   2   3
ENDBRANCH   1   2
BRANCH   1   6
HETATM    6  N1  UNL     1      12.276  20.322  59.860  1.00  0.00    -0.345 N 
HETATM    7  C6  UNL     1      12.639  20.199  61.228  1.00  0.00     0.218 C 
HETATM    8  O1  UNL     1      13.756  19.660  61.533  1.00  0.00    -0.274 OA
ATOM      9  H1  UNL     1      11.384  20.751  59.616  1.00  0.00     0.163 HD
BRANCH   7  10
HETATM   10  C7  UNL     1      11.711  20.700  62.274  1.00  0.00     0.113 C 
BRANCH  10  11
HETATM   11  C8  UNL     1      12.371  21.742  63.147  1.00  0.00     0.122 C 
BRANCH  11  12
HETATM   12  C9  UNL     1      12.932  22.846  62.329  1.00  0.00     0.172 C 
HETATM   13  O2  UNL     1      14.155  23.075  62.259  1.00  0.00    -0.648 OA
HETATM   14  O3  UNL     1      12.050  23.650  61.615  1.00  0.00    -0.648 OA
ENDBRANCH  11  12
ENDBRANCH  10  11
ENDBRANCH   7  10
ENDBRANCH   1   6
BRANCH   1  15
HETATM   15  P1  UNL     1      13.750  21.229  57.783  1.00  0.00     0.278 P 
HETATM   16  O4  UNL     1      12.687  22.317  57.659  1.00  0.00    -0.645 OA
HETATM   17  O5  UNL     1      15.121  21.951  58.447  1.00  0.00    -0.645 OA
BRANCH  15  18
HETATM   18  O6  UNL     1      14.060  20.664  56.192  1.00  0.00    -0.268 OA
BRANCH  18  19
HETATM   19  C10 UNL     1      15.177  21.143  55.508  1.00  0.00     0.079 A 
HETATM   20  C11 UNL     1      16.270  21.668  56.153  1.00  0.00     0.037 A 
HETATM   21  C12 UNL     1      17.333  22.120  55.426  1.00  0.00     0.003 A 
HETATM   22  C13 UNL     1      17.318  22.053  54.028  1.00  0.00     0.000 A 
HETATM   23  C14 UNL     1      16.217  21.526  53.409  1.00  0.00     0.003 A 
HETATM   24  C15 UNL     1      15.136  21.064  54.130  1.00  0.00     0.037 A 
ENDBRANCH  18  19
ENDBRANCH  15  18
ENDBRANCH   1  15
TORSDOF 10
ENDMDL
MODEL 3
REMARK VINA RESULT: -7.827179501      1.774      2.697
REMARK  10 active torsions:
REMARK  status: ('A' for Active; 'I' for Inactive)
REMARK    1  A    between atoms: C2_2  and  C3_3 
REMARK    2  A    between atoms: C3_3  and  C4_4 
REMARK    3  A    between atoms: C4_4  and  C5_5 
REMARK    4  A    between atoms: C5_5  and  N1_6 
REMARK    5  A    between atoms: C5_5  and  P1_15 
REMARK       I    between atoms: N1_6  and  C6_8 
REMARK    6  A    between atoms: C6_8  and  C7_10 
REMARK    7  A    between atoms: C7_10  and  C8_11 
REMARK    8  A    between atoms: C8_11  and  C9_12 
REMARK    9  A    between atoms: P1_15  and  O6_18 
REMARK   10  A    between atoms: O6_18  and  C10_19 
ROOT
HETATM    1  C5  UNL     1      13.459  19.635  58.797  1.00  0.00     0.205 C 
ENDROOT
BRANCH   1   2
HETATM    2  C4  UNL     1      12.956  18.576  57.818  1.00  0.00     0.038 C 
BRANCH   2   3
HETATM    3  C3  UNL     1      11.454  18.412  57.932  1.00  0.00     0.002 C 
BRANCH   3   4
HETATM    4  C2  UNL     1      11.158  16.960  57.549  1.00  0.00    -0.004 C 
HETATM    5  C1  UNL     1      12.194  16.449  56.576  1.00  0.00     0.005 C 
ENDBRANCH   3   4
ENDBRANCH   2   3
ENDBRANCH   1   2
BRANCH   1   6
HETATM    6  N1  UNL     1      12.364  19.868  59.744  1.00  0.00    -0.345 N 
HETATM    7  C6  UNL     1      12.585  19.863  61.147  1.00  0.00     0.218 C 
HETATM    8  O1  UNL     1      13.761  19.649  61.595  1.00  0.00    -0.274 OA
ATOM      9  H1  UNL     1      11.424  20.038  59.387  1.00  0.00     0.163 HD
BRANCH   7  10
HETATM   10  C7  UNL     1      11.442  20.106  62.064  1.00  0.00     0.113 C 
BRANCH  10  11
HETATM   11  C8  UNL     1      10.827  18.809  62.539  1.00  0.00     0.122 C 
BRANCH  11  12
HETATM   12  C9  UNL     1       9.811  18.316  61.576  1.00  0.00     0.172 C 
HETATM   13  O2  UNL     1       9.931  17.233  60.971  1.00  0.00    -0.648 OA
HETATM   14  O3  UNL     1       8.686  19.100  61.347  1.00  0.00    -0.648 OA
ENDBRANCH  11  12
ENDBRANCH  10  11
ENDBRANCH   7  10
ENDBRANCH   1   6
BRANCH   1  15
HETATM   15  P1  UNL     1      13.797  21.129  57.829  1.00  0.00     0.278 P 
HETATM   16  O4  UNL     1      12.605  22.082  57.849  1.00  0.00    -0.645 OA
HETATM   17  O5  UNL     1      15.122  21.981  58.426  1.00  0.00    -0.645 OA
BRANCH  15  18
HETATM   18  O6  UNL     1      14.038  20.683  56.190  1.00  0.00    -0.268 OA
BRANCH  18  19
HETATM   19  C10 UNL     1      15.172  21.144  55.521  1.00  0.00     0.079 A 
HETATM   20  C11 UNL     1      16.279  21.619  56.183  1.00  0.00     0.037 A 
HETATM   21  C12 UNL     1      17.357  22.056  55.470  1.00  0.00     0.003 A 
HETATM   22  C13 UNL     1      17.345  22.026  54.071  1.00  0.00     0.000 A 
HETATM   23  C14 UNL     1      16.231  21.549  53.436  1.00  0.00     0.003 A 
HETATM   24  C15 UNL     1      15.133  21.102  54.141  1.00  0.00     0.037 A 
ENDBRANCH  18  19
ENDBRANCH  15  18
ENDBRANCH   1  15
TORSDOF 10
ENDMDL
MODEL 4
REMARK VINA RESULT: -7.786456574      1.231      2.064
REMARK  10 active torsions:
REMARK  status: ('A' for Active; 'I' for Inactive)
REMARK    1  A    between atoms: C2_2  and  C3_3 
REMARK    2  A    between atoms: C3_3  and  C4_4 
REMARK    3  A    between atoms: C4_4  and  C5_5 
REMARK    4  A    between atoms: C5_5  and  N1_6 
REMARK    5  A    between atoms: C5_5  and  P1_15 
REMARK       I    between atoms: N1_6  and  C6_8 
REMARK    6  A    between atoms: C6_8  and  C7_10 
REMARK    7  A    between atoms: C7_10  and  C8_11 
REMARK    8  A    between atoms: C8_11  and  C9_12 
REMARK    9  A    between atoms: P1_15  and  O6_18 
REMARK   10  A    between atoms: O6_18  and  C10_19 
ROOT
HETATM    1  C5  UNL     1      13.708  20.527  58.945  1.00  0.00     0.205 C 
ENDROOT
BRANCH   1   2
HETATM    2  C4  UNL     1      13.414  19.032  58.837  1.00  0.00     0.038 C 
BRANCH   2   3
HETATM    3  C3  UNL     1      12.176  18.672  59.633  1.00  0.00     0.002 C 
BRANCH   3   4
HETATM    4  C2  UNL     1      11.334  17.777  58.721  1.00  0.00    -0.004 C 
HETATM    5  C1  UNL     1      12.070  17.493  57.433  1.00  0.00     0.005 C 
ENDBRANCH   3   4
ENDBRANCH   2   3
ENDBRANCH   1   2
BRANCH   1   6
HETATM    6  N1  UNL     1      12.886  21.025  60.053  1.00  0.00    -0.345 N 
HETATM    7  C6  UNL     1      13.235  22.209  60.758  1.00  0.00     0.218 C 
HETATM    8  O1  UNL     1      14.285  22.852  60.422  1.00  0.00    -0.274 OA
ATOM      9  H1  UNL     1      12.048  20.511  60.324  1.00  0.00     0.163 HD
BRANCH   7  10
HETATM   10  C7  UNL     1      12.369  22.672  61.873  1.00  0.00     0.113 C 
BRANCH  10  11
HETATM   11  C8  UNL     1      12.159  21.584  62.901  1.00  0.00     0.122 C 
BRANCH  11  12
HETATM   12  C9  UNL     1      13.449  20.967  63.296  1.00  0.00     0.172 C 
HETATM   13  O2  UNL     1      14.297  21.568  63.983  1.00  0.00    -0.648 OA
HETATM   14  O3  UNL     1      13.712  19.666  62.879  1.00  0.00    -0.648 OA
ENDBRANCH  11  12
ENDBRANCH  10  11
ENDBRANCH   7  10
ENDBRANCH   1   6
BRANCH   1  15
HETATM   15  P1  UNL     1      13.192  21.279  57.379  1.00  0.00     0.278 P 
HETATM   16  O4  UNL     1      11.692  21.111  57.152  1.00  0.00    -0.645 OA
HETATM   17  O5  UNL     1      13.516  22.932  57.337  1.00  0.00    -0.645 OA
BRANCH  15  18
HETATM   18  O6  UNL     1      13.976  20.463  56.089  1.00  0.00    -0.268 OA
BRANCH  18  19
HETATM   19  C10 UNL     1      15.107  21.038  55.511  1.00  0.00     0.079 A 
HETATM   20  C11 UNL     1      16.145  21.541  56.257  1.00  0.00     0.037 A 
HETATM   21  C12 UNL     1      17.225  22.092  55.630  1.00  0.00     0.003 A 
HETATM   22  C13 UNL     1      17.284  22.149  54.233  1.00  0.00     0.000 A 
HETATM   23  C14 UNL     1      16.237  21.641  53.512  1.00  0.00     0.003 A 
HETATM   24  C15 UNL     1      15.139  21.081  54.130  1.00  0.00     0.037 A 
ENDBRANCH  18  19
ENDBRANCH  15  18
ENDBRANCH   1  15
TORSDOF 10
ENDMDL
MODEL 5
REMARK VINA RESULT: -7.760822108      1.592      2.313
REMARK  10 active torsions:
REMARK  status: ('A' for Active; 'I' for Inactive)
REMARK    1  A    between atoms: C2_2  and  C3_3 
REMARK    2  A    between atoms: C3_3  and  C4_4 
REMARK    3  A    between atoms: C4_4  and  C5_5 
REMARK    4  A    between atoms: C5_5  and  N1_6 
REMARK    5  A    between atoms: C5_5  and  P1_15 
REMARK       I    between atoms: N1_6  and  C6_8 
REMARK    6  A    between atoms: C6_8  and  C7_10 
REMARK    7  A    between atoms: C7_10  and  C8_11 
REMARK    8  A    between atoms: C8_11  and  C9_12 
REMARK    9  A    between atoms: P1_15  and  O6_18 
REMARK   10  A    between atoms: O6_18  and  C10_19 
ROOT
HETATM    1  C5  UNL     1      13.663  20.857  59.574  1.00  0.00     0.205 C 
ENDROOT
BRANCH   1   2
HETATM    2  C4  UNL     1      12.937  19.514  59.586  1.00  0.00     0.038 C 
BRANCH   2   3
HETATM    3  C3  UNL     1      12.070  19.385  60.821  1.00  0.00     0.002 C 
BRANCH   3   4
HETATM    4  C2  UNL     1      10.949  18.411  60.450  1.00  0.00    -0.004 C 
HETATM    5  C1  UNL     1      11.189  17.828  59.077  1.00  0.00     0.005 C 
ENDBRANCH   3   4
ENDBRANCH   2   3
ENDBRANCH   1   2
BRANCH   1   6
HETATM    6  N1  UNL     1      12.804  21.791  60.312  1.00  0.00    -0.345 N 
HETATM    7  C6  UNL     1      13.346  22.915  60.991  1.00  0.00     0.218 C 
HETATM    8  O1  UNL     1      14.607  23.117  60.961  1.00  0.00    -0.274 OA
ATOM      9  H1  UNL     1      11.798  21.629  60.337  1.00  0.00     0.163 HD
BRANCH   7  10
HETATM   10  C7  UNL     1      12.434  23.831  61.723  1.00  0.00     0.113 C 
BRANCH  10  11
HETATM   11  C8  UNL     1      13.202  24.902  62.464  1.00  0.00     0.122 C 
BRANCH  11  12
HETATM   12  C9  UNL     1      12.425  26.164  62.531  1.00  0.00     0.172 C 
HETATM   13  O2  UNL     1      12.889  27.259  62.157  1.00  0.00    -0.648 OA
HETATM   14  O3  UNL     1      11.129  26.114  63.033  1.00  0.00    -0.648 OA
ENDBRANCH  11  12
ENDBRANCH  10  11
ENDBRANCH   7  10
ENDBRANCH   1   6
BRANCH   1  15
HETATM   15  P1  UNL     1      13.811  21.361  57.840  1.00  0.00     0.278 P 
HETATM   16  O4  UNL     1      12.734  20.706  56.979  1.00  0.00    -0.645 OA
HETATM   17  O5  UNL     1      13.649  23.027  57.651  1.00  0.00    -0.645 OA
BRANCH  15  18
HETATM   18  O6  UNL     1      15.321  20.814  57.233  1.00  0.00    -0.268 OA
BRANCH  18  19
HETATM   19  C10 UNL     1      15.721  21.209  55.957  1.00  0.00     0.079 A 
HETATM   20  C11 UNL     1      15.043  20.836  54.821  1.00  0.00     0.037 A 
HETATM   21  C12 UNL     1      15.487  21.256  53.600  1.00  0.00     0.003 A 
HETATM   22  C13 UNL     1      16.625  22.062  53.495  1.00  0.00     0.000 A 
HETATM   23  C14 UNL     1      17.283  22.420  54.642  1.00  0.00     0.003 A 
HETATM   24  C15 UNL     1      16.847  22.005  55.883  1.00  0.00     0.037 A 
ENDBRANCH  18  19
ENDBRANCH  15  18
ENDBRANCH   1  15
TORSDOF 10
ENDMDL
MODEL 6
REMARK VINA RESULT: -7.690904336      1.543      2.436
REMARK  10 active torsions:
REMARK  status: ('A' for Active; 'I' for Inactive)
REMARK    1  A    between atoms: C2_2  and  C3_3 
REMARK    2  A    between atoms: C3_3  and  C4_4 
REMARK    3  A    between atoms: C4_4  and  C5_5 
REMARK    4  A    between atoms: C5_5  and  N1_6 
REMARK    5  A    between atoms: C5_5  and  P1_15 
REMARK       I    between atoms: N1_6  and  C6_8 
REMARK    6  A    between atoms: C6_8  and  C7_10 
REMARK    7  A    between atoms: C7_10  and  C8_11 
REMARK    8  A    between atoms: C8_11  and  C9_12 
REMARK    9  A    between atoms: P1_15  and  O6_18 
REMARK   10  A    between atoms: O6_18  and  C10_19 
ROOT
HETATM    1  C5  UNL     1      13.496  19.602  59.142  1.00  0.00     0.205 C 
ENDROOT
BRANCH   1   2
HETATM    2  C4  UNL     1      12.859  18.595  58.188  1.00  0.00     0.038 C 
BRANCH   2   3
HETATM    3  C3  UNL     1      11.460  18.236  58.645  1.00  0.00     0.002 C 
BRANCH   3   4
HETATM    4  C2  UNL     1      11.046  17.015  57.820  1.00  0.00    -0.004 C 
HETATM    5  C1  UNL     1      12.067  16.736  56.742  1.00  0.00     0.005 C 
ENDBRANCH   3   4
ENDBRANCH   2   3
ENDBRANCH   1   2
BRANCH   1   6
HETATM    6  N1  UNL     1      12.413  20.092  60.002  1.00  0.00    -0.345 N 
HETATM    7  C6  UNL     1      12.551  20.131  61.416  1.00  0.00     0.218 C 
HETATM    8  O1  UNL     1      13.639  19.731  61.950  1.00  0.00    -0.274 OA
ATOM      9  H1  UNL     1      11.543  20.410  59.576  1.00  0.00     0.163 HD
BRANCH   7  10
HETATM   10  C7  UNL     1      11.425  20.637  62.241  1.00  0.00     0.113 C 
BRANCH  10  11
HETATM   11  C8  UNL     1      10.745  19.518  62.997  1.00  0.00     0.122 C 
BRANCH  11  12
HETATM   12  C9  UNL     1       9.767  18.810  62.135  1.00  0.00     0.172 C 
HETATM   13  O2  UNL     1       8.737  19.359  61.698  1.00  0.00    -0.648 OA
HETATM   14  O3  UNL     1      10.018  17.482  61.807  1.00  0.00    -0.648 OA
ENDBRANCH  11  12
ENDBRANCH  10  11
ENDBRANCH   7  10
ENDBRANCH   1   6
BRANCH   1  15
HETATM   15  P1  UNL     1      14.161  20.945  58.124  1.00  0.00     0.278 P 
HETATM   16  O4  UNL     1      13.109  21.476  57.153  1.00  0.00    -0.645 OA
HETATM   17  O5  UNL     1      14.675  22.250  59.058  1.00  0.00    -0.645 OA
BRANCH  15  18
HETATM   18  O6  UNL     1      15.444  20.329  57.165  1.00  0.00    -0.268 OA
BRANCH  18  19
HETATM   19  C10 UNL     1      15.782  20.986  55.983  1.00  0.00     0.079 A 
HETATM   20  C11 UNL     1      16.711  21.997  55.937  1.00  0.00     0.037 A 
HETATM   21  C12 UNL     1      16.997  22.600  54.747  1.00  0.00     0.003 A 
HETATM   22  C13 UNL     1      16.354  22.198  53.572  1.00  0.00     0.000 A 
HETATM   23  C14 UNL     1      15.433  21.187  53.643  1.00  0.00     0.003 A 
HETATM   24  C15 UNL     1      15.132  20.567  54.838  1.00  0.00     0.037 A 
ENDBRANCH  18  19
ENDBRANCH  15  18
ENDBRANCH   1  15
TORSDOF 10
ENDMDL
MODEL 7
REMARK VINA RESULT: -7.678074244      1.543      2.418
REMARK  10 active torsions:
REMARK  status: ('A' for Active; 'I' for Inactive)
REMARK    1  A    between atoms: C2_2  and  C3_3 
REMARK    2  A    between atoms: C3_3  and  C4_4 
REMARK    3  A    between atoms: C4_4  and  C5_5 
REMARK    4  A    between atoms: C5_5  and  N1_6 
REMARK    5  A    between atoms: C5_5  and  P1_15 
REMARK       I    between atoms: N1_6  and  C6_8 
REMARK    6  A    between atoms: C6_8  and  C7_10 
REMARK    7  A    between atoms: C7_10  and  C8_11 
REMARK    8  A    between atoms: C8_11  and  C9_12 
REMARK    9  A    between atoms: P1_15  and  O6_18 
REMARK   10  A    between atoms: O6_18  and  C10_19 
ROOT
HETATM    1  C5  UNL     1      13.450  19.653  59.185  1.00  0.00     0.205 C 
ENDROOT
BRANCH   1   2
HETATM    2  C4  UNL     1      12.980  18.435  58.395  1.00  0.00     0.038 C 
BRANCH   2   3
HETATM    3  C3  UNL     1      11.606  17.994  58.858  1.00  0.00     0.002 C 
BRANCH   3   4
HETATM    4  C2  UNL     1      11.061  17.084  57.754  1.00  0.00    -0.004 C 
HETATM    5  C1  UNL     1      12.095  16.889  56.671  1.00  0.00     0.005 C 
ENDBRANCH   3   4
ENDBRANCH   2   3
ENDBRANCH   1   2
BRANCH   1   6
HETATM    6  N1  UNL     1      12.346  20.006  60.085  1.00  0.00    -0.345 N 
HETATM    7  C6  UNL     1      12.489  19.930  61.497  1.00  0.00     0.218 C 
HETATM    8  O1  UNL     1      13.601  19.546  61.993  1.00  0.00    -0.274 OA
ATOM      9  H1  UNL     1      11.458  20.313  59.689  1.00  0.00     0.163 HD
BRANCH   7  10
HETATM   10  C7  UNL     1      11.342  20.300  62.364  1.00  0.00     0.113 C 
BRANCH  10  11
HETATM   11  C8  UNL     1      10.123  19.459  62.059  1.00  0.00     0.122 C 
BRANCH  11  12
HETATM   12  C9  UNL     1      10.275  18.085  62.596  1.00  0.00     0.172 C 
HETATM   13  O2  UNL     1       9.879  17.076  61.979  1.00  0.00    -0.648 OA
HETATM   14  O3  UNL     1      10.885  17.925  63.836  1.00  0.00    -0.648 OA
ENDBRANCH  11  12
ENDBRANCH  10  11
ENDBRANCH   7  10
ENDBRANCH   1   6
BRANCH   1  15
HETATM   15  P1  UNL     1      13.744  20.978  57.984  1.00  0.00     0.278 P 
HETATM   16  O4  UNL     1      12.870  20.805  56.745  1.00  0.00    -0.645 OA
HETATM   17  O5  UNL     1      13.398  22.498  58.625  1.00  0.00    -0.645 OA
BRANCH  15  18
HETATM   18  O6  UNL     1      15.372  20.889  57.451  1.00  0.00    -0.268 OA
BRANCH  18  19
HETATM   19  C10 UNL     1      15.670  21.214  56.128  1.00  0.00     0.079 A 
HETATM   20  C11 UNL     1      14.987  20.679  55.062  1.00  0.00     0.037 A 
HETATM   21  C12 UNL     1      15.328  21.038  53.791  1.00  0.00     0.003 A 
HETATM   22  C13 UNL     1      16.367  21.946  53.562  1.00  0.00     0.000 A 
HETATM   23  C14 UNL     1      17.032  22.465  54.640  1.00  0.00     0.003 A 
HETATM   24  C15 UNL     1      16.700  22.113  55.931  1.00  0.00     0.037 A 
ENDBRANCH  18  19
ENDBRANCH  15  18
ENDBRANCH   1  15
TORSDOF 10
ENDMDL
MODEL 8
REMARK VINA RESULT: -7.651020895      1.685      2.488
REMARK  10 active torsions:
REMARK  status: ('A' for Active; 'I' for Inactive)
REMARK    1  A    between atoms: C2_2  and  C3_3 
REMARK    2  A    between atoms: C3_3  and  C4_4 
REMARK    3  A    between atoms: C4_4  and  C5_5 
REMARK    4  A    between atoms: C5_5  and  N1_6 
REMARK    5  A    between atoms: C5_5  and  P1_15 
REMARK       I    between atoms: N1_6  and  C6_8 
REMARK    6  A    between atoms: C6_8  and  C7_10 
REMARK    7  A    between atoms: C7_10  and  C8_11 
REMARK    8  A    between atoms: C8_11  and  C9_12 
REMARK    9  A    between atoms: P1_15  and  O6_18 
REMARK   10  A    between atoms: O6_18  and  C10_19 
ROOT
HETATM    1  C5  UNL     1      13.608  19.874  58.934  1.00  0.00     0.205 C 
ENDROOT
BRANCH   1   2
HETATM    2  C4  UNL     1      13.207  18.678  58.074  1.00  0.00     0.038 C 
BRANCH   2   3
HETATM    3  C3  UNL     1      11.706  18.638  57.878  1.00  0.00     0.002 C 
BRANCH   3   4
HETATM    4  C2  UNL     1      11.338  17.160  57.730  1.00  0.00    -0.004 C 
HETATM    5  C1  UNL     1      12.125  16.530  56.604  1.00  0.00     0.005 C 
ENDBRANCH   3   4
ENDBRANCH   2   3
ENDBRANCH   1   2
BRANCH   1   6
HETATM    6  N1  UNL     1      12.478  20.124  59.836  1.00  0.00    -0.345 N 
HETATM    7  C6  UNL     1      12.610  19.988  61.244  1.00  0.00     0.218 C 
HETATM    8  O1  UNL     1      13.736  19.640  61.736  1.00  0.00    -0.274 OA
ATOM      9  H1  UNL     1      11.578  20.401  59.443  1.00  0.00     0.163 HD
BRANCH   7  10
HETATM   10  C7  UNL     1      11.436  20.254  62.114  1.00  0.00     0.113 C 
BRANCH  10  11
HETATM   11  C8  UNL     1      10.939  18.989  62.777  1.00  0.00     0.122 C 
BRANCH  11  12
HETATM   12  C9  UNL     1      10.107  18.189  61.844  1.00  0.00     0.172 C 
HETATM   13  O2  UNL     1       9.682  18.645  60.765  1.00  0.00    -0.648 OA
HETATM   14  O3  UNL     1       9.796  16.880  62.196  1.00  0.00    -0.648 OA
ENDBRANCH  11  12
ENDBRANCH  10  11
ENDBRANCH   7  10
ENDBRANCH   1   6
BRANCH   1  15
HETATM   15  P1  UNL     1      13.850  21.274  57.810  1.00  0.00     0.278 P 
HETATM   16  O4  UNL     1      12.620  22.177  57.778  1.00  0.00    -0.645 OA
HETATM   17  O5  UNL     1      15.156  22.234  58.270  1.00  0.00    -0.645 OA
BRANCH  15  18
HETATM   18  O6  UNL     1      14.057  20.673  56.216  1.00  0.00    -0.268 OA
BRANCH  18  19
HETATM   19  C10 UNL     1      15.146  21.110  55.463  1.00  0.00     0.079 A 
HETATM   20  C11 UNL     1      15.150  21.096  54.089  1.00  0.00     0.037 A 
HETATM   21  C12 UNL     1      16.248  21.538  53.411  1.00  0.00     0.003 A 
HETATM   22  C13 UNL     1      17.372  22.005  54.102  1.00  0.00     0.000 A 
HETATM   23  C14 UNL     1      17.343  22.009  55.471  1.00  0.00     0.003 A 
HETATM   24  C15 UNL     1      16.241  21.567  56.171  1.00  0.00     0.037 A 
ENDBRANCH  18  19
ENDBRANCH  15  18
ENDBRANCH   1  15
TORSDOF 10
ENDMDL
MODEL 9
REMARK VINA RESULT: -7.246743768      1.819      4.215
REMARK  10 active torsions:
REMARK  status: ('A' for Active; 'I' for Inactive)
REMARK    1  A    between atoms: C2_2  and  C3_3 
REMARK    2  A    between atoms: C3_3  and  C4_4 
REMARK    3  A    between atoms: C4_4  and  C5_5 
REMARK    4  A    between atoms: C5_5  and  N1_6 
REMARK    5  A    between atoms: C5_5  and  P1_15 
REMARK       I    between atoms: N1_6  and  C6_8 
REMARK    6  A    between atoms: C6_8  and  C7_10 
REMARK    7  A    between atoms: C7_10  and  C8_11 
REMARK    8  A    between atoms: C8_11  and  C9_12 
REMARK    9  A    between atoms: P1_15  and  O6_18 
REMARK   10  A    between atoms: O6_18  and  C10_19 
ROOT
HETATM    1  C5  UNL     1      12.743  21.145  59.000  1.00  0.00     0.205 C 
ENDROOT
BRANCH   1   2
HETATM    2  C4  UNL     1      12.834  21.206  60.523  1.00  0.00     0.038 C 
BRANCH   2   3
HETATM    3  C3  UNL     1      13.125  19.834  61.097  1.00  0.00     0.002 C 
BRANCH   3   4
HETATM    4  C2  UNL     1      12.442  19.796  62.466  1.00  0.00    -0.004 C 
HETATM    5  C1  UNL     1      13.464  19.598  63.561  1.00  0.00     0.005 C 
ENDBRANCH   3   4
ENDBRANCH   2   3
ENDBRANCH   1   2
BRANCH   1   6
HETATM    6  N1  UNL     1      12.796  19.722  58.645  1.00  0.00    -0.345 N 
HETATM    7  C6  UNL     1      12.032  19.199  57.567  1.00  0.00     0.218 C 
HETATM    8  O1  UNL     1      11.282  19.983  56.893  1.00  0.00    -0.274 OA
ATOM      9  H1  UNL     1      13.394  19.095  59.183  1.00  0.00     0.163 HD
BRANCH   7  10
HETATM   10  C7  UNL     1      12.122  17.752  57.247  1.00  0.00     0.113 C 
BRANCH  10  11
HETATM   11  C8  UNL     1      10.893  17.004  57.712  1.00  0.00     0.122 C 
BRANCH  11  12
HETATM   12  C9  UNL     1      10.347  17.597  58.957  1.00  0.00     0.172 C 
HETATM   13  O2  UNL     1      10.976  17.594  60.034  1.00  0.00    -0.648 OA
HETATM   14  O3  UNL     1       9.084  18.177  58.912  1.00  0.00    -0.648 OA
ENDBRANCH  11  12
ENDBRANCH  10  11
ENDBRANCH   7  10
ENDBRANCH   1   6
BRANCH   1  15
HETATM   15  P1  UNL     1      14.190  22.020  58.349  1.00  0.00     0.278 P 
HETATM   16  O4  UNL     1      13.780  23.102  57.354  1.00  0.00    -0.645 OA
HETATM   17  O5  UNL     1      15.070  22.778  59.570  1.00  0.00    -0.645 OA
BRANCH  15  18
HETATM   18  O6  UNL     1      15.167  20.905  57.485  1.00  0.00    -0.268 OA
BRANCH  18  19
HETATM   19  C10 UNL     1      15.559  21.215  56.183  1.00  0.00     0.079 A 
HETATM   20  C11 UNL     1      14.892  20.745  55.078  1.00  0.00     0.037 A 
HETATM   21  C12 UNL     1      15.326  21.086  53.830  1.00  0.00     0.003 A 
HETATM   22  C13 UNL     1      16.446  21.909  53.666  1.00  0.00     0.000 A 
HETATM   23  C14 UNL     1      17.093  22.364  54.783  1.00  0.00     0.003 A 
HETATM   24  C15 UNL     1      16.667  22.030  56.051  1.00  0.00     0.037 A 
ENDBRANCH  18  19
ENDBRANCH  15  18
ENDBRANCH   1  15
TORSDOF 10
ENDMDL
MODEL 10
REMARK VINA RESULT: -7.013876930      2.586      6.796
REMARK  10 active torsions:
REMARK  status: ('A' for Active; 'I' for Inactive)
REMARK    1  A    between atoms: C2_2  and  C3_3 
REMARK    2  A    between atoms: C3_3  and  C4_4 
REMARK    3  A    between atoms: C4_4  and  C5_5 
REMARK    4  A    between atoms: C5_5  and  N1_6 
REMARK    5  A    between atoms: C5_5  and  P1_15 
REMARK       I    between atoms: N1_6  and  C6_8 
REMARK    6  A    between atoms: C6_8  and  C7_10 
REMARK    7  A    between atoms: C7_10  and  C8_11 
REMARK    8  A    between atoms: C8_11  and  C9_12 
REMARK    9  A    between atoms: P1_15  and  O6_18 
REMARK   10  A    between atoms: O6_18  and  C10_19 
ROOT
HETATM    1  C5  UNL     1      13.201  21.599  59.591  1.00  0.00     0.205 C 
ENDROOT
BRANCH   1   2
HETATM    2  C4  UNL     1      13.431  20.119  59.891  1.00  0.00     0.038 C 
BRANCH   2   3
HETATM    3  C3  UNL     1      12.184  19.313  59.591  1.00  0.00     0.002 C 
BRANCH   3   4
HETATM    4  C2  UNL     1      12.588  18.289  58.527  1.00  0.00    -0.004 C 
HETATM    5  C1  UNL     1      11.363  17.649  57.918  1.00  0.00     0.005 C 
ENDBRANCH   3   4
ENDBRANCH   2   3
ENDBRANCH   1   2
BRANCH   1   6
HETATM    6  N1  UNL     1      14.311  22.017  58.727  1.00  0.00    -0.345 N 
HETATM    7  C6  UNL     1      14.272  21.813  57.322  1.00  0.00     0.218 C 
HETATM    8  O1  UNL     1      13.252  21.253  56.798  1.00  0.00    -0.274 OA
ATOM      9  H1  UNL     1      15.127  22.464  59.145  1.00  0.00     0.163 HD
BRANCH   7  10
HETATM   10  C7  UNL     1      15.421  22.256  56.491  1.00  0.00     0.113 C 
BRANCH  10  11
HETATM   11  C8  UNL     1      15.970  21.122  55.655  1.00  0.00     0.122 C 
BRANCH  11  12
HETATM   12  C9  UNL     1      15.750  21.371  54.209  1.00  0.00     0.172 C 
HETATM   13  O2  UNL     1      14.717  21.006  53.615  1.00  0.00    -0.648 OA
HETATM   14  O3  UNL     1      16.741  22.040  53.498  1.00  0.00    -0.648 OA
ENDBRANCH  11  12
ENDBRANCH  10  11
ENDBRANCH   7  10
ENDBRANCH   1   6
BRANCH   1  15
HETATM   15  P1  UNL     1      13.262  22.473  61.177  1.00  0.00     0.278 P 
HETATM   16  O4  UNL     1      12.023  23.341  61.378  1.00  0.00    -0.645 OA
HETATM   17  O5  UNL     1      13.336  21.408  62.482  1.00  0.00    -0.645 OA
BRANCH  15  18
HETATM   18  O6  UNL     1      14.608  23.536  61.171  1.00  0.00    -0.268 OA
BRANCH  18  19
HETATM   19  C10 UNL     1      14.951  24.203  62.347  1.00  0.00     0.079 A 
HETATM   20  C11 UNL     1      14.023  24.846  63.130  1.00  0.00     0.037 A 
HETATM   21  C12 UNL     1      14.423  25.480  64.270  1.00  0.00     0.003 A 
HETATM   22  C13 UNL     1      15.769  25.482  64.649  1.00  0.00     0.000 A 
HETATM   23  C14 UNL     1      16.675  24.835  63.852  1.00  0.00     0.003 A 
HETATM   24  C15 UNL     1      16.287  24.188  62.697  1.00  0.00     0.037 A 
ENDBRANCH  18  19
ENDBRANCH  15  18
ENDBRANCH   1  15
TORSDOF 10
ENDMDL
MODEL 11
REMARK VINA RESULT: -6.974050838      2.148      4.170
REMARK  10 active torsions:
REMARK  status: ('A' for Active; 'I' for Inactive)
REMARK    1  A    between atoms: C2_2  and  C3_3 
REMARK    2  A    between atoms: C3_3  and  C4_4 
REMARK    3  A    between atoms: C4_4  and  C5_5 
REMARK    4  A    between atoms: C5_5  and  N1_6 
REMARK    5  A    between atoms: C5_5  and  P1_15 
REMARK       I    between atoms: N1_6  and  C6_8 
REMARK    6  A    between atoms: C6_8  and  C7_10 
REMARK    7  A    between atoms: C7_10  and  C8_11 
REMARK    8  A    between atoms: C8_11  and  C9_12 
REMARK    9  A    between atoms: P1_15  and  O6_18 
REMARK   10  A    between atoms: O6_18  and  C10_19 
ROOT
HETATM    1  C5  UNL     1      12.662  21.060  58.844  1.00  0.00     0.205 C 
ENDROOT
BRANCH   1   2
HETATM    2  C4  UNL     1      12.901  21.638  60.236  1.00  0.00     0.038 C 
BRANCH   2   3
HETATM    3  C3  UNL     1      12.720  20.571  61.297  1.00  0.00     0.002 C 
BRANCH   3   4
HETATM    4  C2  UNL     1      11.960  21.240  62.444  1.00  0.00    -0.004 C 
HETATM    5  C1  UNL     1      11.394  20.199  63.381  1.00  0.00     0.005 C 
ENDBRANCH   3   4
ENDBRANCH   2   3
ENDBRANCH   1   2
BRANCH   1   6
HETATM    6  N1  UNL     1      12.103  19.719  59.049  1.00  0.00    -0.345 N 
HETATM    7  C6  UNL     1      11.254  19.116  58.082  1.00  0.00     0.218 C 
HETATM    8  O1  UNL     1      10.969  19.753  57.013  1.00  0.00    -0.274 OA
ATOM      9  H1  UNL     1      12.329  19.210  59.903  1.00  0.00     0.163 HD
BRANCH   7  10
HETATM   10  C7  UNL     1      10.715  17.756  58.337  1.00  0.00     0.113 C 
BRANCH  10  11
HETATM   11  C8  UNL     1      10.331  17.574  59.788  1.00  0.00     0.122 C 
BRANCH  11  12
HETATM   12  C9  UNL     1       9.086  18.313  60.108  1.00  0.00     0.172 C 
HETATM   13  O2  UNL     1       8.963  19.008  61.135  1.00  0.00    -0.648 OA
HETATM   14  O3  UNL     1       8.019  18.221  59.220  1.00  0.00    -0.648 OA
ENDBRANCH  11  12
ENDBRANCH  10  11
ENDBRANCH   7  10
ENDBRANCH   1   6
BRANCH   1  15
HETATM   15  P1  UNL     1      14.277  20.962  58.029  1.00  0.00     0.278 P 
HETATM   16  O4  UNL     1      15.180  22.118  58.449  1.00  0.00    -0.645 OA
HETATM   17  O5  UNL     1      15.089  19.535  58.410  1.00  0.00    -0.645 OA
BRANCH  15  18
HETATM   18  O6  UNL     1      14.051  21.109  56.334  1.00  0.00    -0.268 OA
BRANCH  18  19
HETATM   19  C10 UNL     1      15.162  21.318  55.518  1.00  0.00     0.079 A 
HETATM   20  C11 UNL     1      15.146  21.068  54.167  1.00  0.00     0.037 A 
HETATM   21  C12 UNL     1      16.267  21.293  53.424  1.00  0.00     0.003 A 
HETATM   22  C13 UNL     1      17.434  21.777  54.024  1.00  0.00     0.000 A 
HETATM   23  C14 UNL     1      17.425  22.019  55.372  1.00  0.00     0.003 A 
HETATM   24  C15 UNL     1      16.300  21.797  56.137  1.00  0.00     0.037 A 
ENDBRANCH  18  19
ENDBRANCH  15  18
ENDBRANCH   1  15
TORSDOF 10
ENDMDL
MODEL 12
REMARK VINA RESULT: -6.873213717      2.380      6.944
REMARK  10 active torsions:
REMARK  status: ('A' for Active; 'I' for Inactive)
REMARK    1  A    between atoms: C2_2  and  C3_3 
REMARK    2  A    between atoms: C3_3  and  C4_4 
REMARK    3  A    between atoms: C4_4  and  C5_5 
REMARK    4  A    between atoms: C5_5  and  N1_6 
REMARK    5  A    between atoms: C5_5  and  P1_15 
REMARK       I    between atoms: N1_6  and  C6_8 
REMARK    6  A    between atoms: C6_8  and  C7_10 
REMARK    7  A    between atoms: C7_10  and  C8_11 
REMARK    8  A    between atoms: C8_11  and  C9_12 
REMARK    9  A    between atoms: P1_15  and  O6_18 
REMARK   10  A    between atoms: O6_18  and  C10_19 
ROOT
HETATM    1  C5  UNL     1      12.348  20.366  58.215  1.00  0.00     0.205 C 
ENDROOT
BRANCH   1   2
HETATM    2  C4  UNL     1      11.744  19.131  57.552  1.00  0.00     0.038 C 
BRANCH   2   3
HETATM    3  C3  UNL     1      12.830  18.161  57.134  1.00  0.00     0.002 C 
BRANCH   3   4
HETATM    4  C2  UNL     1      12.110  16.888  56.682  1.00  0.00    -0.004 C 
HETATM    5  C1  UNL     1      10.940  16.592  57.592  1.00  0.00     0.005 C 
ENDBRANCH   3   4
ENDBRANCH   2   3
ENDBRANCH   1   2
BRANCH   1   6
HETATM    6  N1  UNL     1      13.559  20.687  57.451  1.00  0.00    -0.345 N 
HETATM    7  C6  UNL     1      14.130  21.988  57.482  1.00  0.00     0.218 C 
HETATM    8  O1  UNL     1      13.579  22.897  58.188  1.00  0.00    -0.274 OA
ATOM      9  H1  UNL     1      14.000  19.961  56.886  1.00  0.00     0.163 HD
BRANCH   7  10
HETATM   10  C7  UNL     1      15.358  22.262  56.691  1.00  0.00     0.113 C 
BRANCH  10  11
HETATM   11  C8  UNL     1      15.809  21.038  55.927  1.00  0.00     0.122 C 
BRANCH  11  12
HETATM   12  C9  UNL     1      15.807  21.292  54.465  1.00  0.00     0.172 C 
HETATM   13  O2  UNL     1      16.797  21.753  53.863  1.00  0.00    -0.648 OA
HETATM   14  O3  UNL     1      14.652  21.001  53.747  1.00  0.00    -0.648 OA
ENDBRANCH  11  12
ENDBRANCH  10  11
ENDBRANCH   7  10
ENDBRANCH   1   6
BRANCH   1  15
HETATM   15  P1  UNL     1      12.770  19.898  59.913  1.00  0.00     0.278 P 
HETATM   16  O4  UNL     1      14.241  19.505  60.030  1.00  0.00    -0.645 OA
HETATM   17  O5  UNL     1      12.508  21.161  60.999  1.00  0.00    -0.645 OA
BRANCH  15  18
HETATM   18  O6  UNL     1      11.858  18.511  60.348  1.00  0.00    -0.268 OA
BRANCH  18  19
HETATM   19  C10 UNL     1      10.681  18.675  61.077  1.00  0.00     0.079 A 
HETATM   20  C11 UNL     1      10.676  19.032  62.404  1.00  0.00     0.037 A 
HETATM   21  C12 UNL     1       9.489  19.177  63.062  1.00  0.00     0.003 A 
HETATM   22  C13 UNL     1       8.277  18.965  62.397  1.00  0.00     0.000 A 
HETATM   23  C14 UNL     1       8.308  18.611  61.075  1.00  0.00     0.003 A 
HETATM   24  C15 UNL     1       9.499  18.461  60.396  1.00  0.00     0.037 A 
ENDBRANCH  18  19
ENDBRANCH  15  18
ENDBRANCH   1  15
TORSDOF 10
ENDMDL
MODEL 13
REMARK VINA RESULT: -6.845863741      2.008      6.161
REMARK  10 active torsions:
REMARK  status: ('A' for Active; 'I' for Inactive)
REMARK    1  A    between atoms: C2_2  and  C3_3 
REMARK    2  A    between atoms: C3_3  and  C4_4 
REMARK    3  A    between atoms: C4_4  and  C5_5 
REMARK    4  A    between atoms: C5_5  and  N1_6 
REMARK    5  A    between atoms: C5_5  and  P1_15 
REMARK       I    between atoms: N1_6  and  C6_8 
REMARK    6  A    between atoms: C6_8  and  C7_10 
REMARK    7  A    between atoms: C7_10  and  C8_11 
REMARK    8  A    between atoms: C8_11  and  C9_12 
REMARK    9  A    between atoms: P1_15  and  O6_18 
REMARK   10  A    between atoms: O6_18  and  C10_19 
ROOT
HETATM    1  C5  UNL     1      14.297  20.653  57.248  1.00  0.00     0.205 C 
ENDROOT
BRANCH   1   2
HETATM    2  C4  UNL     1      14.870  21.144  55.921  1.00  0.00     0.038 C 
BRANCH   2   3
HETATM    3  C3  UNL     1      16.320  21.554  56.083  1.00  0.00     0.002 C 
BRANCH   3   4
HETATM    4  C2  UNL     1      17.048  21.031  54.843  1.00  0.00    -0.004 C 
HETATM    5  C1  UNL     1      17.349  22.165  53.891  1.00  0.00     0.005 C 
ENDBRANCH   3   4
ENDBRANCH   2   3
ENDBRANCH   1   2
BRANCH   1   6
HETATM    6  N1  UNL     1      13.044  19.964  56.921  1.00  0.00    -0.345 N 
HETATM    7  C6  UNL     1      12.755  18.670  57.433  1.00  0.00     0.218 C 
HETATM    8  O1  UNL     1      13.604  18.093  58.193  1.00  0.00    -0.274 OA
ATOM      9  H1  UNL     1      12.366  20.423  56.313  1.00  0.00     0.163 HD
BRANCH   7  10
HETATM   10  C7  UNL     1      11.471  18.016  57.072  1.00  0.00     0.113 C 
BRANCH  10  11
HETATM   11  C8  UNL     1      11.000  17.080  58.162  1.00  0.00     0.122 C 
BRANCH  11  12
HETATM   12  C9  UNL     1      10.225  17.812  59.194  1.00  0.00     0.172 C 
HETATM   13  O2  UNL     1      10.276  17.519  60.405  1.00  0.00    -0.648 OA
HETATM   14  O3  UNL     1       9.412  18.864  58.785  1.00  0.00    -0.648 OA
ENDBRANCH  11  12
ENDBRANCH  10  11
ENDBRANCH   7  10
ENDBRANCH   1   6
BRANCH   1  15
HETATM   15  P1  UNL     1      13.973  22.122  58.258  1.00  0.00     0.278 P 
HETATM   16  O4  UNL     1      15.117  22.386  59.234  1.00  0.00    -0.645 OA
HETATM   17  O5  UNL     1      13.796  23.508  57.317  1.00  0.00    -0.645 OA
BRANCH  15  18
HETATM   18  O6  UNL     1      12.574  21.840  59.211  1.00  0.00    -0.268 OA
BRANCH  18  19
HETATM   19  C10 UNL     1      12.727  21.405  60.527  1.00  0.00     0.079 A 
HETATM   20  C11 UNL     1      12.845  20.077  60.859  1.00  0.00     0.037 A 
HETATM   21  C12 UNL     1      12.992  19.717  62.167  1.00  0.00     0.003 A 
HETATM   22  C13 UNL     1      13.024  20.688  63.174  1.00  0.00     0.000 A 
HETATM   23  C14 UNL     1      12.904  22.004  62.817  1.00  0.00     0.003 A 
HETATM   24  C15 UNL     1      12.755  22.385  61.500  1.00  0.00     0.037 A 
ENDBRANCH  18  19
ENDBRANCH  15  18
ENDBRANCH   1  15
TORSDOF 10
ENDMDL
MODEL 14
REMARK VINA RESULT: -6.819834308      1.867      6.222
REMARK  10 active torsions:
REMARK  status: ('A' for Active; 'I' for Inactive)
REMARK    1  A    between atoms: C2_2  and  C3_3 
REMARK    2  A    between atoms: C3_3  and  C4_4 
REMARK    3  A    between atoms: C4_4  and  C5_5 
REMARK    4  A    between atoms: C5_5  and  N1_6 
REMARK    5  A    between atoms: C5_5  and  P1_15 
REMARK       I    between atoms: N1_6  and  C6_8 
REMARK    6  A    between atoms: C6_8  and  C7_10 
REMARK    7  A    between atoms: C7_10  and  C8_11 
REMARK    8  A    between atoms: C8_11  and  C9_12 
REMARK    9  A    between atoms: P1_15  and  O6_18 
REMARK   10  A    between atoms: O6_18  and  C10_19 
ROOT
HETATM    1  C5  UNL     1      12.205  19.643  59.781  1.00  0.00     0.205 C 
ENDROOT
BRANCH   1   2
HETATM    2  C4  UNL     1      11.787  18.197  59.526  1.00  0.00     0.038 C 
BRANCH   2   3
HETATM    3  C3  UNL     1      10.699  18.132  58.474  1.00  0.00     0.002 C 
BRANCH   3   4
HETATM    4  C2  UNL     1      10.986  16.875  57.648  1.00  0.00    -0.004 C 
HETATM    5  C1  UNL     1      12.133  17.118  56.696  1.00  0.00     0.005 C 
ENDBRANCH   3   4
ENDBRANCH   2   3
ENDBRANCH   1   2
BRANCH   1   6
HETATM    6  N1  UNL     1      13.527  19.801  59.163  1.00  0.00    -0.345 N 
HETATM    7  C6  UNL     1      13.677  20.381  57.875  1.00  0.00     0.218 C 
HETATM    8  O1  UNL     1      12.641  20.773  57.240  1.00  0.00    -0.274 OA
ATOM      9  H1  UNL     1      14.355  19.487  59.669  1.00  0.00     0.163 HD
BRANCH   7  10
HETATM   10  C7  UNL     1      15.037  20.519  57.294  1.00  0.00     0.113 C 
BRANCH  10  11
HETATM   11  C8  UNL     1      15.173  21.796  56.496  1.00  0.00     0.122 C 
BRANCH  11  12
HETATM   12  C9  UNL     1      15.636  21.515  55.115  1.00  0.00     0.172 C 
HETATM   13  O2  UNL     1      16.805  21.733  54.742  1.00  0.00    -0.648 OA
HETATM   14  O3  UNL     1      14.723  20.987  54.209  1.00  0.00    -0.648 OA
ENDBRANCH  11  12
ENDBRANCH  10  11
ENDBRANCH   7  10
ENDBRANCH   1   6
BRANCH   1  15
HETATM   15  P1  UNL     1      12.311  19.853  61.577  1.00  0.00     0.278 P 
HETATM   16  O4  UNL     1      11.432  18.839  62.305  1.00  0.00    -0.645 OA
HETATM   17  O5  UNL     1      13.884  19.642  62.146  1.00  0.00    -0.645 OA
BRANCH  15  18
HETATM   18  O6  UNL     1      11.709  21.406  61.989  1.00  0.00    -0.268 OA
BRANCH  18  19
HETATM   19  C10 UNL     1      12.612  22.430  62.272  1.00  0.00     0.079 A 
HETATM   20  C11 UNL     1      12.871  22.856  63.552  1.00  0.00     0.037 A 
HETATM   21  C12 UNL     1      13.767  23.863  63.762  1.00  0.00     0.003 A 
HETATM   22  C13 UNL     1      14.424  24.467  62.685  1.00  0.00     0.000 A 
HETATM   23  C14 UNL     1      14.149  24.025  61.419  1.00  0.00     0.003 A 
HETATM   24  C15 UNL     1      13.247  23.008  61.190  1.00  0.00     0.037 A 
ENDBRANCH  18  19
ENDBRANCH  15  18
ENDBRANCH   1  15
TORSDOF 10
ENDMDL
MODEL 15
REMARK VINA RESULT: -6.796948437      2.348      7.115
REMARK  10 active torsions:
REMARK  status: ('A' for Active; 'I' for Inactive)
REMARK    1  A    between atoms: C2_2  and  C3_3 
REMARK    2  A    between atoms: C3_3  and  C4_4 
REMARK    3  A    between atoms: C4_4  and  C5_5 
REMARK    4  A    between atoms: C5_5  and  N1_6 
REMARK    5  A    between atoms: C5_5  and  P1_15 
REMARK       I    between atoms: N1_6  and  C6_8 
REMARK    6  A    between atoms: C6_8  and  C7_10 
REMARK    7  A    between atoms: C7_10  and  C8_11 
REMARK    8  A    between atoms: C8_11  and  C9_12 
REMARK    9  A    between atoms: P1_15  and  O6_18 
REMARK   10  A    between atoms: O6_18  and  C10_19 
ROOT
HETATM    1  C5  UNL     1      12.769  20.444  59.684  1.00  0.00     0.205 C 
ENDROOT
BRANCH   1   2
HETATM    2  C4  UNL     1      13.011  18.946  59.514  1.00  0.00     0.038 C 
BRANCH   2   3
HETATM    3  C3  UNL     1      11.895  18.311  58.708  1.00  0.00     0.002 C 
BRANCH   3   4
HETATM    4  C2  UNL     1      12.534  17.838  57.401  1.00  0.00    -0.004 C 
HETATM    5  C1  UNL     1      11.811  16.624  56.869  1.00  0.00     0.005 C 
ENDBRANCH   3   4
ENDBRANCH   2   3
ENDBRANCH   1   2
BRANCH   1   6
HETATM    6  N1  UNL     1      13.873  21.116  58.989  1.00  0.00    -0.345 N 
HETATM    7  C6  UNL     1      13.768  21.489  57.622  1.00  0.00     0.218 C 
HETATM    8  O1  UNL     1      12.693  21.232  56.983  1.00  0.00    -0.274 OA
ATOM      9  H1  UNL     1      14.732  21.321  59.498  1.00  0.00     0.163 HD
BRANCH   7  10
HETATM   10  C7  UNL     1      14.913  22.169  56.964  1.00  0.00     0.113 C 
BRANCH  10  11
HETATM   11  C8  UNL     1      15.805  21.183  56.244  1.00  0.00     0.122 C 
BRANCH  11  12
HETATM   12  C9  UNL     1      15.797  21.427  54.781  1.00  0.00     0.172 C 
HETATM   13  O2  UNL     1      16.741  21.985  54.189  1.00  0.00    -0.648 OA
HETATM   14  O3  UNL     1      14.689  21.013  54.049  1.00  0.00    -0.648 OA
ENDBRANCH  11  12
ENDBRANCH  10  11
ENDBRANCH   7  10
ENDBRANCH   1   6
BRANCH   1  15
HETATM   15  P1  UNL     1      12.830  20.788  61.461  1.00  0.00     0.278 P 
HETATM   16  O4  UNL     1      13.675  19.753  62.198  1.00  0.00    -0.645 OA
HETATM   17  O5  UNL     1      13.502  22.299  61.789  1.00  0.00    -0.645 OA
BRANCH  15  18
HETATM   18  O6  UNL     1      11.242  20.668  62.102  1.00  0.00    -0.268 OA
BRANCH  18  19
HETATM   19  C10 UNL     1      10.773  19.423  62.520  1.00  0.00     0.079 A 
HETATM   20  C11 UNL     1      10.026  18.603  61.709  1.00  0.00     0.037 A 
HETATM   21  C12 UNL     1       9.596  17.396  62.178  1.00  0.00     0.003 A 
HETATM   22  C13 UNL     1       9.910  16.985  63.478  1.00  0.00     0.000 A 
HETATM   23  C14 UNL     1      10.657  17.819  64.266  1.00  0.00     0.003 A 
HETATM   24  C15 UNL     1      11.099  19.042  63.807  1.00  0.00     0.037 A 
ENDBRANCH  18  19
ENDBRANCH  15  18
ENDBRANCH   1  15
TORSDOF 10
ENDMDL
MODEL 16
REMARK VINA RESULT: -6.760704346      2.885      3.762
REMARK  10 active torsions:
REMARK  status: ('A' for Active; 'I' for Inactive)
REMARK    1  A    between atoms: C2_2  and  C3_3 
REMARK    2  A    between atoms: C3_3  and  C4_4 
REMARK    3  A    between atoms: C4_4  and  C5_5 
REMARK    4  A    between atoms: C5_5  and  N1_6 
REMARK    5  A    between atoms: C5_5  and  P1_15 
REMARK       I    between atoms: N1_6  and  C6_8 
REMARK    6  A    between atoms: C6_8  and  C7_10 
REMARK    7  A    between atoms: C7_10  and  C8_11 
REMARK    8  A    between atoms: C8_11  and  C9_12 
REMARK    9  A    between atoms: P1_15  and  O6_18 
REMARK   10  A    between atoms: O6_18  and  C10_19 
ROOT
HETATM    1  C5  UNL     1      12.857  19.628  58.634  1.00  0.00     0.205 C 
ENDROOT
BRANCH   1   2
HETATM    2  C4  UNL     1      13.353  18.386  57.898  1.00  0.00     0.038 C 
BRANCH   2   3
HETATM    3  C3  UNL     1      12.421  18.033  56.756  1.00  0.00     0.002 C 
BRANCH   3   4
HETATM    4  C2  UNL     1      12.301  16.508  56.765  1.00  0.00    -0.004 C 
HETATM    5  C1  UNL     1      10.988  16.085  57.381  1.00  0.00     0.005 C 
ENDBRANCH   3   4
ENDBRANCH   2   3
ENDBRANCH   1   2
BRANCH   1   6
HETATM    6  N1  UNL     1      11.395  19.618  58.512  1.00  0.00    -0.345 N 
HETATM    7  C6  UNL     1      10.582  18.872  59.407  1.00  0.00     0.218 C 
HETATM    8  O1  UNL     1      11.134  18.194  60.338  1.00  0.00    -0.274 OA
ATOM      9  H1  UNL     1      10.953  20.158  57.768  1.00  0.00     0.163 HD
BRANCH   7  10
HETATM   10  C7  UNL     1       9.106  18.896  59.241  1.00  0.00     0.113 C 
BRANCH  10  11
HETATM   11  C8  UNL     1       8.400  18.419  60.490  1.00  0.00     0.122 C 
BRANCH  11  12
HETATM   12  C9  UNL     1       6.939  18.662  60.402  1.00  0.00     0.172 C 
HETATM   13  O2  UNL     1       6.309  19.285  61.279  1.00  0.00    -0.648 OA
HETATM   14  O3  UNL     1       6.255  18.173  59.294  1.00  0.00    -0.648 OA
ENDBRANCH  11  12
ENDBRANCH  10  11
ENDBRANCH   7  10
ENDBRANCH   1   6
BRANCH   1  15
HETATM   15  P1  UNL     1      13.559  21.063  57.780  1.00  0.00     0.278 P 
HETATM   16  O4  UNL     1      12.562  22.217  57.725  1.00  0.00    -0.645 OA
HETATM   17  O5  UNL     1      14.942  21.641  58.552  1.00  0.00    -0.645 OA
BRANCH  15  18
HETATM   18  O6  UNL     1      13.896  20.628  56.155  1.00  0.00    -0.268 OA
BRANCH  18  19
HETATM   19  C10 UNL     1      15.055  21.112  55.550  1.00  0.00     0.079 A 
HETATM   20  C11 UNL     1      16.106  21.626  56.270  1.00  0.00     0.037 A 
HETATM   21  C12 UNL     1      17.214  22.084  55.617  1.00  0.00     0.003 A 
HETATM   22  C13 UNL     1      17.289  22.034  54.221  1.00  0.00     0.000 A 
HETATM   23  C14 UNL     1      16.229  21.517  53.527  1.00  0.00     0.003 A 
HETATM   24  C15 UNL     1      15.103  21.050  54.171  1.00  0.00     0.037 A 
ENDBRANCH  18  19
ENDBRANCH  15  18
ENDBRANCH   1  15
TORSDOF 10
ENDMDL
MODEL 17
REMARK VINA RESULT: -6.693816405      1.429      2.258
REMARK  10 active torsions:
REMARK  status: ('A' for Active; 'I' for Inactive)
REMARK    1  A    between atoms: C2_2  and  C3_3 
REMARK    2  A    between atoms: C3_3  and  C4_4 
REMARK    3  A    between atoms: C4_4  and  C5_5 
REMARK    4  A    between atoms: C5_5  and  N1_6 
REMARK    5  A    between atoms: C5_5  and  P1_15 
REMARK       I    between atoms: N1_6  and  C6_8 
REMARK    6  A    between atoms: C6_8  and  C7_10 
REMARK    7  A    between atoms: C7_10  and  C8_11 
REMARK    8  A    between atoms: C8_11  and  C9_12 
REMARK    9  A    between atoms: P1_15  and  O6_18 
REMARK   10  A    between atoms: O6_18  and  C10_19 
ROOT
HETATM    1  C5  UNL     1      13.087  20.125  59.456  1.00  0.00     0.205 C 
ENDROOT
BRANCH   1   2
HETATM    2  C4  UNL     1      11.667  19.619  59.212  1.00  0.00     0.038 C 
BRANCH   2   3
HETATM    3  C3  UNL     1      11.513  18.196  59.710  1.00  0.00     0.002 C 
BRANCH   3   4
HETATM    4  C2  UNL     1      10.447  17.551  58.822  1.00  0.00    -0.004 C 
HETATM    5  C1  UNL     1      11.094  16.783  57.693  1.00  0.00     0.005 C 
ENDBRANCH   3   4
ENDBRANCH   2   3
ENDBRANCH   1   2
BRANCH   1   6
HETATM    6  N1  UNL     1      12.960  21.547  59.795  1.00  0.00    -0.345 N 
HETATM    7  C6  UNL     1      13.032  21.996  61.141  1.00  0.00     0.218 C 
HETATM    8  O1  UNL     1      13.209  21.145  62.077  1.00  0.00    -0.274 OA
ATOM      9  H1  UNL     1      12.817  22.227  59.049  1.00  0.00     0.163 HD
BRANCH   7  10
HETATM   10  C7  UNL     1      12.898  23.446  61.432  1.00  0.00     0.113 C 
BRANCH  10  11
HETATM   11  C8  UNL     1      14.244  24.134  61.450  1.00  0.00     0.122 C 
BRANCH  11  12
HETATM   12  C9  UNL     1      14.780  24.221  62.831  1.00  0.00     0.172 C 
HETATM   13  O2  UNL     1      14.478  25.145  63.611  1.00  0.00    -0.648 OA
HETATM   14  O3  UNL     1      15.653  23.227  63.262  1.00  0.00    -0.648 OA
ENDBRANCH  11  12
ENDBRANCH  10  11
ENDBRANCH   7  10
ENDBRANCH   1   6
BRANCH   1  15
HETATM   15  P1  UNL     1      13.995  19.917  57.902  1.00  0.00     0.278 P 
HETATM   16  O4  UNL     1      15.256  19.082  58.106  1.00  0.00    -0.645 OA
HETATM   17  O5  UNL     1      13.069  19.137  56.730  1.00  0.00    -0.645 OA
BRANCH  15  18
HETATM   18  O6  UNL     1      14.513  21.459  57.355  1.00  0.00    -0.268 OA
BRANCH  18  19
HETATM   19  C10 UNL     1      15.296  21.541  56.204  1.00  0.00     0.079 A 
HETATM   20  C11 UNL     1      16.550  22.102  56.202  1.00  0.00     0.037 A 
HETATM   21  C12 UNL     1      17.267  22.152  55.042  1.00  0.00     0.003 A 
HETATM   22  C13 UNL     1      16.736  21.638  53.854  1.00  0.00     0.000 A 
HETATM   23  C14 UNL     1      15.485  21.084  53.882  1.00  0.00     0.003 A 
HETATM   24  C15 UNL     1      14.748  21.024  55.047  1.00  0.00     0.037 A 
ENDBRANCH  18  19
ENDBRANCH  15  18
ENDBRANCH   1  15
TORSDOF 10
ENDMDL
MODEL 18
REMARK VINA RESULT: -6.643704677      2.070      4.737
REMARK  10 active torsions:
REMARK  status: ('A' for Active; 'I' for Inactive)
REMARK    1  A    between atoms: C2_2  and  C3_3 
REMARK    2  A    between atoms: C3_3  and  C4_4 
REMARK    3  A    between atoms: C4_4  and  C5_5 
REMARK    4  A    between atoms: C5_5  and  N1_6 
REMARK    5  A    between atoms: C5_5  and  P1_15 
REMARK       I    between atoms: N1_6  and  C6_8 
REMARK    6  A    between atoms: C6_8  and  C7_10 
REMARK    7  A    between atoms: C7_10  and  C8_11 
REMARK    8  A    between atoms: C8_11  and  C9_12 
REMARK    9  A    between atoms: P1_15  and  O6_18 
REMARK   10  A    between atoms: O6_18  and  C10_19 
ROOT
HETATM    1  C5  UNL     1      12.816  21.544  58.524  1.00  0.00     0.205 C 
ENDROOT
BRANCH   1   2
HETATM    2  C4  UNL     1      13.106  22.198  59.872  1.00  0.00     0.038 C 
BRANCH   2   3
HETATM    3  C3  UNL     1      12.756  21.260  61.010  1.00  0.00     0.002 C 
BRANCH   3   4
HETATM    4  C2  UNL     1      12.387  22.154  62.196  1.00  0.00    -0.004 C 
HETATM    5  C1  UNL     1      12.535  23.611  61.825  1.00  0.00     0.005 C 
ENDBRANCH   3   4
ENDBRANCH   2   3
ENDBRANCH   1   2
BRANCH   1   6
HETATM    6  N1  UNL     1      11.990  20.366  58.812  1.00  0.00    -0.345 N 
HETATM    7  C6  UNL     1      11.076  19.851  57.854  1.00  0.00     0.218 C 
HETATM    8  O1  UNL     1      10.969  20.425  56.718  1.00  0.00    -0.274 OA
ATOM      9  H1  UNL     1      12.074  19.907  59.719  1.00  0.00     0.163 HD
BRANCH   7  10
HETATM   10  C7  UNL     1      10.263  18.655  58.194  1.00  0.00     0.113 C 
BRANCH  10  11
HETATM   11  C8  UNL     1      11.135  17.494  58.615  1.00  0.00     0.122 C 
BRANCH  11  12
HETATM   12  C9  UNL     1      11.566  16.697  57.440  1.00  0.00     0.172 C 
HETATM   13  O2  UNL     1      10.947  15.688  57.050  1.00  0.00    -0.648 OA
HETATM   14  O3  UNL     1      12.706  17.100  56.754  1.00  0.00    -0.648 OA
ENDBRANCH  11  12
ENDBRANCH  10  11
ENDBRANCH   7  10
ENDBRANCH   1   6
BRANCH   1  15
HETATM   15  P1  UNL     1      14.412  21.049  57.824  1.00  0.00     0.278 P 
HETATM   16  O4  UNL     1      15.469  22.129  58.038  1.00  0.00    -0.645 OA
HETATM   17  O5  UNL     1      14.999  19.636  58.529  1.00  0.00    -0.645 OA
BRANCH  15  18
HETATM   18  O6  UNL     1      14.238  20.866  56.127  1.00  0.00    -0.268 OA
BRANCH  18  19
HETATM   19  C10 UNL     1      15.292  21.237  55.293  1.00  0.00     0.079 A 
HETATM   20  C11 UNL     1      15.181  21.259  53.924  1.00  0.00     0.037 A 
HETATM   21  C12 UNL     1      16.251  21.632  53.164  1.00  0.00     0.003 A 
HETATM   22  C13 UNL     1      17.461  21.992  53.766  1.00  0.00     0.000 A 
HETATM   23  C14 UNL     1      17.547  21.962  55.132  1.00  0.00     0.003 A 
HETATM   24  C15 UNL     1      16.475  21.588  55.915  1.00  0.00     0.037 A 
ENDBRANCH  18  19
ENDBRANCH  15  18
ENDBRANCH   1  15
TORSDOF 10
ENDMDL
MODEL 19
REMARK VINA RESULT: -6.610507145      2.108      6.995
REMARK  10 active torsions:
REMARK  status: ('A' for Active; 'I' for Inactive)
REMARK    1  A    between atoms: C2_2  and  C3_3 
REMARK    2  A    between atoms: C3_3  and  C4_4 
REMARK    3  A    between atoms: C4_4  and  C5_5 
REMARK    4  A    between atoms: C5_5  and  N1_6 
REMARK    5  A    between atoms: C5_5  and  P1_15 
REMARK       I    between atoms: N1_6  and  C6_8 
REMARK    6  A    between atoms: C6_8  and  C7_10 
REMARK    7  A    between atoms: C7_10  and  C8_11 
REMARK    8  A    between atoms: C8_11  and  C9_12 
REMARK    9  A    between atoms: P1_15  and  O6_18 
REMARK   10  A    between atoms: O6_18  and  C10_19 
ROOT
HETATM    1  C5  UNL     1      12.419  20.388  57.955  1.00  0.00     0.205 C 
ENDROOT
BRANCH   1   2
HETATM    2  C4  UNL     1      11.451  19.225  57.748  1.00  0.00     0.038 C 
BRANCH   2   3
HETATM    3  C3  UNL     1      12.142  18.071  57.049  1.00  0.00     0.002 C 
BRANCH   3   4
HETATM    4  C2  UNL     1      11.370  16.812  57.451  1.00  0.00    -0.004 C 
HETATM    5  C1  UNL     1      10.471  17.098  58.630  1.00  0.00     0.005 C 
ENDBRANCH   3   4
ENDBRANCH   2   3
ENDBRANCH   1   2
BRANCH   1   6
HETATM    6  N1  UNL     1      13.457  20.242  56.928  1.00  0.00    -0.345 N 
HETATM    7  C6  UNL     1      14.338  21.311  56.609  1.00  0.00     0.218 C 
HETATM    8  O1  UNL     1      14.224  22.422  57.228  1.00  0.00    -0.274 OA
ATOM      9  H1  UNL     1      13.548  19.356  56.432  1.00  0.00     0.163 HD
BRANCH   7  10
HETATM   10  C7  UNL     1      15.372  21.112  55.562  1.00  0.00     0.113 C 
BRANCH  10  11
HETATM   11  C8  UNL     1      16.568  22.010  55.786  1.00  0.00     0.122 C 
BRANCH  11  12
HETATM   12  C9  UNL     1      17.304  22.243  54.520  1.00  0.00     0.172 C 
HETATM   13  O2  UNL     1      18.215  21.490  54.125  1.00  0.00    -0.648 OA
HETATM   14  O3  UNL     1      16.958  23.349  53.750  1.00  0.00    -0.648 OA
ENDBRANCH  11  12
ENDBRANCH  10  11
ENDBRANCH   7  10
ENDBRANCH   1   6
BRANCH   1  15
HETATM   15  P1  UNL     1      13.128  20.194  59.611  1.00  0.00     0.278 P 
HETATM   16  O4  UNL     1      14.519  19.569  59.548  1.00  0.00    -0.645 OA
HETATM   17  O5  UNL     1      13.286  21.672  60.406  1.00  0.00    -0.645 OA
BRANCH  15  18
HETATM   18  O6  UNL     1      12.146  19.112  60.510  1.00  0.00    -0.268 OA
BRANCH  18  19
HETATM   19  C10 UNL     1      11.874  19.394  61.848  1.00  0.00     0.079 A 
HETATM   20  C11 UNL     1      12.861  19.483  62.800  1.00  0.00     0.037 A 
HETATM   21  C12 UNL     1      12.529  19.764  64.094  1.00  0.00     0.003 A 
HETATM   22  C13 UNL     1      11.193  19.961  64.459  1.00  0.00     0.000 A 
HETATM   23  C14 UNL     1      10.229  19.868  63.492  1.00  0.00     0.003 A 
HETATM   24  C15 UNL     1      10.547  19.586  62.180  1.00  0.00     0.037 A 
ENDBRANCH  18  19
ENDBRANCH  15  18
ENDBRANCH   1  15
TORSDOF 10
ENDMDL
MODEL 20
REMARK VINA RESULT: -6.604400802      3.176      5.559
REMARK  10 active torsions:
REMARK  status: ('A' for Active; 'I' for Inactive)
REMARK    1  A    between atoms: C2_2  and  C3_3 
REMARK    2  A    between atoms: C3_3  and  C4_4 
REMARK    3  A    between atoms: C4_4  and  C5_5 
REMARK    4  A    between atoms: C5_5  and  N1_6 
REMARK    5  A    between atoms: C5_5  and  P1_15 
REMARK       I    between atoms: N1_6  and  C6_8 
REMARK    6  A    between atoms: C6_8  and  C7_10 
REMARK    7  A    between atoms: C7_10  and  C8_11 
REMARK    8  A    between atoms: C8_11  and  C9_12 
REMARK    9  A    between atoms: P1_15  and  O6_18 
REMARK   10  A    between atoms: O6_18  and  C10_19 
ROOT
HETATM    1  C5  UNL     1      12.797  22.016  60.882  1.00  0.00     0.205 C 
ENDROOT
BRANCH   1   2
HETATM    2  C4  UNL     1      13.378  23.388  61.214  1.00  0.00     0.038 C 
BRANCH   2   3
HETATM    3  C3  UNL     1      12.482  24.128  62.186  1.00  0.00     0.002 C 
BRANCH   3   4
HETATM    4  C2  UNL     1      13.395  24.619  63.312  1.00  0.00    -0.004 C 
HETATM    5  C1  UNL     1      14.834  24.270  63.015  1.00  0.00     0.005 C 
ENDBRANCH   3   4
ENDBRANCH   2   3
ENDBRANCH   1   2
BRANCH   1   6
HETATM    6  N1  UNL     1      13.218  21.122  61.967  1.00  0.00    -0.345 N 
HETATM    7  C6  UNL     1      12.268  20.443  62.777  1.00  0.00     0.218 C 
HETATM    8  O1  UNL     1      11.022  20.615  62.558  1.00  0.00    -0.274 OA
ATOM      9  H1  UNL     1      14.213  20.985  62.142  1.00  0.00     0.163 HD
BRANCH   7  10
HETATM   10  C7  UNL     1      12.745  19.548  63.861  1.00  0.00     0.113 C 
BRANCH  10  11
HETATM   11  C8  UNL     1      14.025  20.061  64.481  1.00  0.00     0.122 C 
BRANCH  11  12
HETATM   12  C9  UNL     1      15.117  19.065  64.353  1.00  0.00     0.172 C 
HETATM   13  O2  UNL     1      16.212  19.333  63.821  1.00  0.00    -0.648 OA
HETATM   14  O3  UNL     1      14.901  17.784  64.850  1.00  0.00    -0.648 OA
ENDBRANCH  11  12
ENDBRANCH  10  11
ENDBRANCH   7  10
ENDBRANCH   1   6
BRANCH   1  15
HETATM   15  P1  UNL     1      13.531  21.500  59.308  1.00  0.00     0.278 P 
HETATM   16  O4  UNL     1      12.558  21.709  58.150  1.00  0.00    -0.645 OA
HETATM   17  O5  UNL     1      14.926  22.374  58.946  1.00  0.00    -0.645 OA
BRANCH  15  18
HETATM   18  O6  UNL     1      13.856  19.817  59.376  1.00  0.00    -0.268 OA
BRANCH  18  19
HETATM   19  C10 UNL     1      12.884  18.920  58.935  1.00  0.00     0.079 A 
HETATM   20  C11 UNL     1      11.791  18.581  59.696  1.00  0.00     0.037 A 
HETATM   21  C12 UNL     1      10.874  17.697  59.206  1.00  0.00     0.003 A 
HETATM   22  C13 UNL     1      11.037  17.131  57.937  1.00  0.00     0.000 A 
HETATM   23  C14 UNL     1      12.134  17.485  57.199  1.00  0.00     0.003 A 
HETATM   24  C15 UNL     1      13.069  18.378  57.678  1.00  0.00     0.037 A 
ENDBRANCH  18  19
ENDBRANCH  15  18
ENDBRANCH   1  15
TORSDOF 10
ENDMDL
