MODEL 1
REMARK VINA RESULT: -7.576326178      0.000      0.000
REMARK  4 active torsions:
REMARK  status: ('A' for Active; 'I' for Inactive)
REMARK    1  A    between atoms: C3_3  and  C4_4 
REMARK    2  A    between atoms: C15_15  and  C16_16 
REMARK    3  A    between atoms: C16_16  and  C17_17 
REMARK    4  A    between atoms: C20_20  and  P1_21 
ROOT
HETATM    1  C1  UNL     1      11.284  18.962  64.665  1.00  0.00     0.050 C 
HETATM    2  C2  UNL     1      11.581  19.281  63.300  1.00  0.00    -0.040 C 
HETATM    3  C3  UNL     1      12.519  20.177  62.967  1.00  0.00    -0.065 C 
HETATM    4  C7  UNL     1      12.831  20.559  61.585  1.00  0.00     0.074 C 
HETATM    5  C8  UNL     1      12.400  19.612  60.556  1.00  0.00    -0.043 A 
HETATM    6  C9  UNL     1      12.998  19.573  59.336  1.00  0.00     0.009 A 
HETATM    7  C10 UNL     1      12.660  18.750  58.334  1.00  0.00     0.007 A 
HETATM    8  C11 UNL     1      11.570  17.857  58.576  1.00  0.00    -0.061 A 
HETATM    9  C12 UNL     1      11.124  16.910  57.570  1.00  0.00     0.048 C 
HETATM   10  C13 UNL     1      10.935  17.860  59.820  1.00  0.00     0.020 A 
HETATM   11  C14 UNL     1      11.373  18.742  60.815  1.00  0.00    -0.010 A 
HETATM   12  C15 UNL     1      10.926  18.501  62.132  1.00  0.00     0.027 C 
ENDROOT
BRANCH  12  13
HETATM   13  C16 UNL     1      10.065  17.720  62.710  1.00  0.00    -0.104 C 
BRANCH  13  14
HETATM   14  C17 UNL     1       9.188  16.905  63.311  1.00  0.00     0.010 A 
HETATM   15  C18 UNL     1       7.936  17.084  63.752  1.00  0.00     0.021 A 
HETATM   16  C19 UNL     1       7.184  16.236  64.410  1.00  0.00     0.013 A 
HETATM   17  C20 UNL     1       7.642  14.989  64.729  1.00  0.00    -0.032 A 
HETATM   18  C23 UNL     1       8.952  14.648  64.339  1.00  0.00     0.013 A 
HETATM   19  C24 UNL     1       9.706  15.539  63.672  1.00  0.00     0.021 A 
BRANCH  17  20
HETATM   20  P1  UNL     1       6.705  13.739  65.602  1.00  0.00    -0.091 P 
HETATM   21  C21 UNL     1       7.807  12.600  66.602  1.00  0.00     0.049 C 
HETATM   22  C22 UNL     1       5.625  12.789  64.515  1.00  0.00     0.049 C 
ENDBRANCH  17  20
ENDBRANCH  13  14
ENDBRANCH  12  13
BRANCH   3  23
HETATM   23  C4  UNL     1      13.325  20.947  63.990  1.00  0.00     0.007 C 
HETATM   24  C5  UNL     1      13.621  22.357  63.503  1.00  0.00     0.014 C 
HETATM   25  C6  UNL     1      14.572  20.203  64.300  1.00  0.00     0.014 C 
ENDBRANCH   3  23
TORSDOF 4
ENDMDL
MODEL 2
REMARK VINA RESULT: -7.091460502      0.413      1.030
REMARK  4 active torsions:
REMARK  status: ('A' for Active; 'I' for Inactive)
REMARK    1  A    between atoms: C3_3  and  C4_4 
REMARK    2  A    between atoms: C15_15  and  C16_16 
REMARK    3  A    between atoms: C16_16  and  C17_17 
REMARK    4  A    between atoms: C20_20  and  P1_21 
ROOT
HETATM    1  C1  UNL     1      11.458  18.795  65.018  1.00  0.00     0.050 C 
HETATM    2  C2  UNL     1      11.631  19.222  63.661  1.00  0.00    -0.040 C 
HETATM    3  C3  UNL     1      12.445  20.234  63.333  1.00  0.00    -0.065 C 
HETATM    4  C7  UNL     1      12.625  20.726  61.962  1.00  0.00     0.074 C 
HETATM    5  C8  UNL     1      12.233  19.797  60.901  1.00  0.00    -0.043 A 
HETATM    6  C9  UNL     1      12.752  19.894  59.649  1.00  0.00     0.009 A 
HETATM    7  C10 UNL     1      12.441  19.096  58.617  1.00  0.00     0.007 A 
HETATM    8  C11 UNL     1      11.470  18.076  58.865  1.00  0.00    -0.061 A 
HETATM    9  C12 UNL     1      11.066  17.144  57.828  1.00  0.00     0.048 C 
HETATM   10  C13 UNL     1      10.920  17.937  60.140  1.00  0.00     0.020 A 
HETATM   11  C14 UNL     1      11.324  18.805  61.164  1.00  0.00    -0.010 A 
HETATM   12  C15 UNL     1      10.990  18.441  62.485  1.00  0.00     0.027 C 
ENDROOT
BRANCH  12  13
HETATM   13  C16 UNL     1      10.257  17.538  63.062  1.00  0.00    -0.104 C 
BRANCH  13  14
HETATM   14  C17 UNL     1       9.507  16.596  63.648  1.00  0.00     0.010 A 
HETATM   15  C18 UNL     1       9.752  15.325  63.994  1.00  0.00     0.021 A 
HETATM   16  C19 UNL     1       8.915  14.449  64.493  1.00  0.00     0.013 A 
HETATM   17  C20 UNL     1       7.610  14.779  64.729  1.00  0.00    -0.032 A 
HETATM   18  C23 UNL     1       7.191  16.085  64.410  1.00  0.00     0.013 A 
HETATM   19  C24 UNL     1       8.067  16.962  63.891  1.00  0.00     0.021 A 
BRANCH  17  20
HETATM   20  P1  UNL     1       6.379  13.681  65.426  1.00  0.00    -0.091 P 
HETATM   21  C21 UNL     1       7.136  12.412  66.578  1.00  0.00     0.049 C 
HETATM   22  C22 UNL     1       5.368  12.878  64.167  1.00  0.00     0.049 C 
ENDBRANCH  17  20
ENDBRANCH  13  14
ENDBRANCH  12  13
BRANCH   3  23
HETATM   23  C4  UNL     1      13.226  21.029  64.354  1.00  0.00     0.007 C 
HETATM   24  C5  UNL     1      13.289  22.500  63.970  1.00  0.00     0.014 C 
HETATM   25  C6  UNL     1      14.584  20.446  64.503  1.00  0.00     0.014 C 
ENDBRANCH   3  23
TORSDOF 4
ENDMDL
MODEL 3
REMARK VINA RESULT: -7.032055145      3.379      7.577
REMARK  4 active torsions:
REMARK  status: ('A' for Active; 'I' for Inactive)
REMARK    1  A    between atoms: C3_3  and  C4_4 
REMARK    2  A    between atoms: C15_15  and  C16_16 
REMARK    3  A    between atoms: C16_16  and  C17_17 
REMARK    4  A    between atoms: C20_20  and  P1_21 
ROOT
HETATM    1  C1  UNL     1      10.218  20.214  64.014  1.00  0.00     0.050 C 
HETATM    2  C2  UNL     1      10.433  19.359  62.884  1.00  0.00    -0.040 C 
HETATM    3  C3  UNL     1       9.622  18.330  62.607  1.00  0.00    -0.065 C 
HETATM    4  C7  UNL     1       9.825  17.409  61.483  1.00  0.00     0.074 C 
HETATM    5  C8  UNL     1      10.686  17.906  60.408  1.00  0.00    -0.043 A 
HETATM    6  C9  UNL     1      10.597  17.410  59.146  1.00  0.00     0.009 A 
HETATM    7  C10 UNL     1      11.352  17.797  58.107  1.00  0.00     0.007 A 
HETATM    8  C11 UNL     1      12.338  18.799  58.368  1.00  0.00    -0.061 A 
HETATM    9  C12 UNL     1      13.203  19.307  57.318  1.00  0.00     0.048 C 
HETATM   10  C13 UNL     1      12.453  19.341  59.649  1.00  0.00     0.020 A 
HETATM   11  C14 UNL     1      11.604  18.890  60.668  1.00  0.00    -0.010 A 
HETATM   12  C15 UNL     1      11.540  19.667  61.844  1.00  0.00     0.027 C 
ENDROOT
BRANCH  12  13
HETATM   13  C16 UNL     1      12.177  20.681  62.344  1.00  0.00    -0.104 C 
BRANCH  13  14
HETATM   14  C17 UNL     1      12.835  21.734  62.845  1.00  0.00     0.010 A 
HETATM   15  C18 UNL     1      13.670  21.874  63.884  1.00  0.00     0.021 A 
HETATM   16  C19 UNL     1      14.203  22.978  64.348  1.00  0.00     0.013 A 
HETATM   17  C20 UNL     1      13.938  24.185  63.766  1.00  0.00    -0.032 A 
HETATM   18  C23 UNL     1      13.066  24.208  62.661  1.00  0.00     0.013 A 
HETATM   19  C24 UNL     1      12.526  23.063  62.209  1.00  0.00     0.021 A 
BRANCH  17  20
HETATM   20  P1  UNL     1      14.619  25.755  64.294  1.00  0.00    -0.091 P 
HETATM   21  C21 UNL     1      14.986  25.784  66.130  1.00  0.00     0.049 C 
HETATM   22  C22 UNL     1      13.585  27.156  63.827  1.00  0.00     0.049 C 
ENDBRANCH  17  20
ENDBRANCH  13  14
ENDBRANCH  12  13
BRANCH   3  23
HETATM   23  C4  UNL     1       8.433  17.962  63.466  1.00  0.00     0.007 C 
HETATM   24  C5  UNL     1       8.551  16.536  63.981  1.00  0.00     0.014 C 
HETATM   25  C6  UNL     1       7.181  18.159  62.690  1.00  0.00     0.014 C 
ENDBRANCH   3  23
TORSDOF 4
ENDMDL
MODEL 4
REMARK VINA RESULT: -6.960961889      0.992      4.013
REMARK  4 active torsions:
REMARK  status: ('A' for Active; 'I' for Inactive)
REMARK    1  A    between atoms: C3_3  and  C4_4 
REMARK    2  A    between atoms: C15_15  and  C16_16 
REMARK    3  A    between atoms: C16_16  and  C17_17 
REMARK    4  A    between atoms: C20_20  and  P1_21 
ROOT
HETATM    1  C1  UNL     1       9.919  17.290  60.143  1.00  0.00     0.050 C 
HETATM    2  C2  UNL     1      10.843  18.276  60.622  1.00  0.00    -0.040 C 
HETATM    3  C3  UNL     1      11.641  18.963  59.795  1.00  0.00    -0.065 C 
HETATM    4  C7  UNL     1      12.625  19.955  60.244  1.00  0.00     0.074 C 
HETATM    5  C8  UNL     1      12.404  20.499  61.585  1.00  0.00    -0.043 A 
HETATM    6  C9  UNL     1      12.908  21.708  61.948  1.00  0.00     0.009 A 
HETATM    7  C10 UNL     1      12.766  22.275  63.155  1.00  0.00     0.007 A 
HETATM    8  C11 UNL     1      12.039  21.529  64.133  1.00  0.00    -0.061 A 
HETATM    9  C12 UNL     1      11.808  22.048  65.469  1.00  0.00     0.048 C 
HETATM   10  C13 UNL     1      11.497  20.287  63.796  1.00  0.00     0.020 A 
HETATM   11  C14 UNL     1      11.678  19.784  62.501  1.00  0.00    -0.010 A 
HETATM   12  C15 UNL     1      10.866  18.697  62.113  1.00  0.00     0.027 C 
ENDROOT
BRANCH  12  13
HETATM   13  C16 UNL     1      10.030  17.888  62.689  1.00  0.00    -0.104 C 
BRANCH  13  14
HETATM   14  C17 UNL     1       9.176  17.053  63.295  1.00  0.00     0.010 A 
HETATM   15  C18 UNL     1       7.925  17.203  63.748  1.00  0.00     0.021 A 
HETATM   16  C19 UNL     1       7.196  16.338  64.410  1.00  0.00     0.013 A 
HETATM   17  C20 UNL     1       7.685  15.100  64.721  1.00  0.00    -0.032 A 
HETATM   18  C23 UNL     1       8.998  14.788  64.318  1.00  0.00     0.013 A 
HETATM   19  C24 UNL     1       9.727  15.697  63.648  1.00  0.00     0.021 A 
BRANCH  17  20
HETATM   20  P1  UNL     1       6.783  13.827  65.599  1.00  0.00    -0.091 P 
HETATM   21  C21 UNL     1       7.922  12.668  66.529  1.00  0.00     0.049 C 
HETATM   22  C22 UNL     1       5.664  12.901  64.530  1.00  0.00     0.049 C 
ENDBRANCH  17  20
ENDBRANCH  13  14
ENDBRANCH  12  13
BRANCH   3  23
HETATM   23  C4  UNL     1      11.661  18.746  58.298  1.00  0.00     0.007 C 
HETATM   24  C5  UNL     1      12.958  18.082  57.860  1.00  0.00     0.014 C 
HETATM   25  C6  UNL     1      11.452  20.044  57.606  1.00  0.00     0.014 C 
ENDBRANCH   3  23
TORSDOF 4
ENDMDL
MODEL 5
REMARK VINA RESULT: -6.950448343      1.603      2.628
REMARK  4 active torsions:
REMARK  status: ('A' for Active; 'I' for Inactive)
REMARK    1  A    between atoms: C3_3  and  C4_4 
REMARK    2  A    between atoms: C15_15  and  C16_16 
REMARK    3  A    between atoms: C16_16  and  C17_17 
REMARK    4  A    between atoms: C20_20  and  P1_21 
ROOT
HETATM    1  C1  UNL     1      12.352  21.143  63.667  1.00  0.00     0.050 C 
HETATM    2  C2  UNL     1      12.449  21.158  62.238  1.00  0.00    -0.040 C 
HETATM    3  C3  UNL     1      12.994  22.185  61.574  1.00  0.00    -0.065 C 
HETATM    4  C7  UNL     1      13.082  22.258  60.110  1.00  0.00     0.074 C 
HETATM    5  C8  UNL     1      12.961  20.981  59.406  1.00  0.00    -0.043 A 
HETATM    6  C9  UNL     1      13.472  20.810  58.159  1.00  0.00     0.009 A 
HETATM    7  C10 UNL     1      13.397  19.682  57.439  1.00  0.00     0.007 A 
HETATM    8  C11 UNL     1      12.704  18.584  58.036  1.00  0.00    -0.061 A 
HETATM    9  C12 UNL     1      12.571  17.307  57.357  1.00  0.00     0.048 C 
HETATM   10  C13 UNL     1      12.173  18.716  59.321  1.00  0.00     0.020 A 
HETATM   11  C14 UNL     1      12.321  19.928  60.007  1.00  0.00    -0.010 A 
HETATM   12  C15 UNL     1      12.053  19.921  61.392  1.00  0.00     0.027 C 
ENDROOT
BRANCH  12  13
HETATM   13  C16 UNL     1      11.553  19.089  62.255  1.00  0.00    -0.104 C 
BRANCH  13  14
HETATM   14  C17 UNL     1      11.044  18.220  63.138  1.00  0.00     0.010 A 
HETATM   15  C18 UNL     1      11.431  17.838  64.362  1.00  0.00     0.021 A 
HETATM   16  C19 UNL     1      10.905  16.907  65.121  1.00  0.00     0.013 A 
HETATM   17  C20 UNL     1       9.824  16.186  64.700  1.00  0.00    -0.032 A 
HETATM   18  C23 UNL     1       9.299  16.465  63.424  1.00  0.00     0.013 A 
HETATM   19  C24 UNL     1       9.862  17.419  62.662  1.00  0.00     0.021 A 
BRANCH  17  20
HETATM   20  P1  UNL     1       9.005  14.908  65.650  1.00  0.00    -0.091 P 
HETATM   21  C21 UNL     1       7.508  14.217  64.762  1.00  0.00     0.049 C 
HETATM   22  C22 UNL     1       8.567  15.448  67.314  1.00  0.00     0.049 C 
ENDBRANCH  17  20
ENDBRANCH  13  14
ENDBRANCH  12  13
BRANCH   3  23
HETATM   23  C4  UNL     1      13.526  23.423  62.261  1.00  0.00     0.007 C 
HETATM   24  C5  UNL     1      12.466  24.512  62.323  1.00  0.00     0.014 C 
HETATM   25  C6  UNL     1      14.749  23.892  61.560  1.00  0.00     0.014 C 
ENDBRANCH   3  23
TORSDOF 4
ENDMDL
